test/data/ieee13/ieee13_makePosSeq/Line.dss
New "Line.650632" bus1=650 bus2=632 Ratings=[ 400] length=0.378787878787879 r1=0.185966659863092 x1=0.596766656810831 C1=3.40000003109625 phases=1 normamps=400 emergamps=600 units=mi
New "Line.632670" bus1=632 bus2=670 Ratings=[ 400] length=0.126325757575758 r1=0.185966665909293 x1=0.59676666557058 C1=3.40000000345845 phases=1 normamps=400 emergamps=600 units=mi
New "Line.670671" bus1=670 bus2=671 Ratings=[ 400] length=0.252462121212121 r1=0.185966663643866 x1=0.596766662288562 C1=3.40000001381391 phases=1 normamps=400 emergamps=600 units=mi
New "Line.671680" bus1=671 bus2=680 Ratings=[ 400] length=0.189393939393939 r1=0.185966664966144 x1=0.596766664202651 C1=3.40000000777345 phases=1 normamps=400 emergamps=600 units=mi
New "Line.632633" bus1=632 bus2=633 Ratings=[ 400] length=0.0946969696969697 r1=0.592066664941285 x1=0.760233332897959 C1=3.40000000247721 phases=1 normamps=400 emergamps=600 units=mi
New "Line.632645" bus1=632 bus2=645 Ratings=[ 400] length=0.0946969696969697 r1=1.11999999301303 x1=0.892900001596878 C1=6.2000000096682 phases=1 normamps=400 emergamps=600 units=mi
New "Line.645646" bus1=645 bus2=646 Ratings=[ 400] length=0.0568181818181818 r1=1.11999999748539 x1=0.892900000574537 C1=6.20000000348273 phases=1 normamps=400 emergamps=600 units=mi
New "Line.692675" bus1=692 bus2=675 Ratings=[ 400] length=0.0946969696969697 r1=0.481562914125568 x1=0.412151280086745 C1=383.948017116902 phases=1 normamps=400 emergamps=600 units=mi
New "Line.671684" bus1=671 bus2=684 Ratings=[ 400] length=0.0568181818181818 r1=1.11999999748539 x1=0.892900000574537 C1=6.20000000348273 phases=1 normamps=400 emergamps=600 units=mi
New "Line.684611" phases=1 bus1=684 bus2=611 linecode=mtx605 Ratings=[ 400] length=0.0568181818181818 units=mi
New "Line.684652" phases=1 bus1=684 bus2=652 linecode=mtx607 Ratings=[ 400] length=0.151515151515152 units=mi
New "Line.671692" bus1=671 bus2=692 Switch=Yes r1=1.00000000009422 x1=0.999999999960914 C1=1.0999999999999 phases=1 length=0.001 normamps=400 emergamps=600 units=none
